*Heading
** Job name: PlateImpact_v1_d Model name: Model-1
** Generated by: Abaqus/CAE 2017
*Preprint, echo=NO, model=NO, history=NO, contact=NO
**
** PARTS
**
*Part, name=Ball
*Node
      1, -0.00197212794, -0.00671645068,           0.
      2, -0.00378448563, -0.00588877453,           0.
      3, -0.00529024703, -0.00458402513,           0.
      4, -0.00636742404, -0.00290790503,           0.
      5, -0.00692875031, -0.00099620386,           0.
      6, -0.00692875031, 0.00099620386,           0.
      7, -0.00636742404, 0.00290790503,           0.
      8, -0.00529024703, 0.00458402513,           0.
      9, -0.00378448563, 0.00588877453,           0.
     10, -0.00197212794, 0.00671645068,           0.
     11,           0., -0.00700000022,           0.
     12,           0., 0.00700000022,           0.
     13, -0.00682680635, 0.000564092072, -0.00144101097
     14, -0.00575500587, -0.000410990237, -0.00396370934
     15, -0.00687926542, 0.000134089743, 0.00128752855
     16, -0.0056700753, 0.000615976693, 0.00405842578
     17, -0.000336762547, -0.00643263059, -0.00274004648
     18, -0.000661260041, -0.00491461577, -0.00494057592
     19, 0.00023882302, -0.00246576197, -0.00654698256
     20, 0.000293763267, -0.00555893173, -0.00424405234
** ... 2564 like lines cut
*Element, type=C3D10M
   1,  196,  197,  198,  199,  385,  384,  383,  387,  386,  388
   2,  196,  200,  197,  199,  390,  389,  385,  387,  391,  386
   3,  196,  201,  200,  202,  393,  392,  390,  395,  394,  396
   4,  196,  202,  203,  204,  395,  398,  397,  400,  399,  401
   5,  205,  206,  207,  208,  404,  403,  402,  406,  405,  407
   6,  205,  208,  209,  210,  406,  409,  408,  411,  410,  412
   7,  205,  206,  208,  211,  404,  405,  406,  414,  413,  415
   8,  205,  212,  211,  213,  417,  416,  414,  419,  418,  420
   9,  205,  214,  209,  207,  422,  421,  408,  402,  423,  424
  10,  131,  215,  124,  216,  427,  426,  425,  429,  428,  430
  11,  217,  211,  210,  208,  433,  432,  431,  434,  415,  410
  12,  162,  206,  157,  218,  437,  436,  435,  439,  438,  440
  13,  206,  162,  219,  218,  437,  442,  441,  438,  439,  443
  14,  206,  208,  220,  221,  405,  445,  444,  447,  446,  448
  15,  206,  208,  217,  220,  405,  434,  449,  444,  445,  450
  16,  206,  157,  218,  222,  436,  440,  438,  452,  451,  453
  17,  220,  144,  157,  149,  456,  455,  454,  458,  457,  459
  18,  199,  223,  200,  197,  461,  460,  391,  386,  462,  389
  19,  197,  224,  225,  226,  465,  464,  463,  467,  466,  468
  20,  197,  225,  227,  199,  463,  470,  469,  386,  471,  472
** ... 1608 like lines cut
*Nset, nset=Projectile, generate
    1,  2584,     1
*Elset, elset=Projectile, generate
    1,  1628,     1
** Section: Projectile
*Solid Section, elset=Projectile, material=HardSteel
,
*End Part
**  
*Part, name=Plate
*Node
      1, 0.0814584494, -0.0607213341,           0.
      2, 0.0880308449, -0.0507260263,           0.
      3, 0.0933828652, -0.0400274992,           0.
      4, 0.0974403024, -0.0287740696,           0.
      5,  0.100146919, -0.0171217415,           0.
      6,  0.101465195, -0.00523205241,           0.
      7,  0.101376846, 0.00673016859,           0.
      8, 0.0998831019, 0.0185990892,           0.
      9, 0.0970046669,  0.030210169,           0.
     10, 0.0927814543, 0.0414024405,           0.
     11, 0.0872719958, 0.0520207472,           0.
     12, 0.0805526823, 0.0619178899,           0.
     13, 0.0727166608, 0.0709566548,           0.
     14, 0.0669253096, 0.0764432028,           0.
     15, 0.0574764758, 0.0837795585,           0.
     16, 0.0472308435, 0.0899544731,           0.
     17, 0.0363304466, 0.0948823392,           0.
     18, 0.0249263979, 0.0984948426,           0.
     19, 0.0131767914,  0.100741908,           0.
     20, 0.0012445139,  0.101592377,           0.
** ... 10416 like lines cut
*Element, type=C3D8R
   1,  3223,  2630,  3131,  3239,   614,    21,   522,   630
   2,  3333,  3404,  3428,  3084,   724,   795,   819,   475
   3,  3736,  3634,  3759,  4898,  1127,  1025,  1150,  2289
   4,  3058,  4871,  3752,  4899,   449,  2262,  1143,  2290
   5,  3041,  3989,  3943,  3779,   432,  1380,  1334,  1170
   6,  4925,  3747,  3022,  4893,  2316,  1138,   413,  2284
   7,  3804,  3014,  4964,  3911,  1195,   405,  2355,  1302
   8,  4025,  4023,  2960,  4856,  1416,  1414,   351,  2247
   9,  3867,  2958,  4813,  3884,  1258,   349,  2204,  1275
  10,  2934,  3660,  3613,  3502,   325,  1051,  1004,   893
  11,  2931,  3562,  3443,  3457,   322,   953,   834,   848
  12,  3155,  3266,  3290,  2642,   546,   657,   681,    33
  13,  4769,  3288,  3260,  3390,  2160,   679,   651,   781
  14,  3300,  3153,  3152,  2933,   691,   544,   543,   324
  15,  3260,  3300,  2932,  3390,   651,   691,   323,   781
  16,  3201,  2640,  3151,  2956,   592,    31,   542,   347
  17,  3342,  3324,  3287,  3305,   733,   715,   678,   696
  18,  3149,  3273,  3305,  2639,   540,   664,   696,    30
  19,  3018,  2638,  3147,  3286,   409,    29,   538,   677
  20,  3386,  3293,  3019,  3435,   777,   684,   410,   826
** ... 7564 like lines cut
*Nset, nset=Plate, generate
     1,  10436,      1
*Elset, elset=Plate, generate
    1,  7584,     1
** Section: Plate
*Solid Section, elset=Plate, controls=EC-1, material=PlateJC
,
*End Part
**  
**
** ASSEMBLY
**
*Assembly, name=Assembly
**  
*Instance, name=Plate-1, part=Plate
*End Instance
**  
*Instance, name=Ball-1, part=Ball
          0.,           0.,        0.025
*End Instance
**  
*Nset, nset=PlateEdge, instance=Plate-1
    1,    2,    3,    4,    5,    6,    7,    8,    9,   10,   11,   12,   13,   14,   15,   16
   17,   18,   19,   20,   21,   22,   23,   24,   25,   26,   27,   28,   29,   30,   31,   32
   33,   34,   35,   36,   37,   38,   39,   40,   41,   42,   43,   44,   45,   46,   47,   48
   49,   50,   51,   52,   53,   54,  482,  483,  484,  485,  486,  487,  488,  489,  490,  491
  492,  493,  494,  495,  496,  497,  498,  499,  500,  501,  502,  503,  504,  505,  506,  507
  508,  509,  510,  511,  512,  513,  514,  515,  516,  517,  518,  519,  520,  521,  522,  523
  524,  525,  526,  527,  528,  529,  530,  531,  532,  533,  534,  535,  536,  537,  538,  539
  540,  541,  542,  543,  544,  545,  546,  547,  548,  549,  550,  551,  552,  553,  554,  555
  556,  557,  558,  559,  560,  561,  562,  563,  564,  565,  566,  567,  568,  569,  570,  571
  572,  573,  574,  575,  576,  577,  578,  579,  580,  581,  582,  583,  584,  585,  586,  587
 2610, 2611, 2612, 2613, 2614, 2615, 2616, 2617, 2618, 2619, 2620, 2621, 2622, 2623, 2624, 2625
 2626, 2627, 2628, 2629, 2630, 2631, 2632, 2633, 2634, 2635, 2636, 2637, 2638, 2639, 2640, 2641
 2642, 2643, 2644, 2645, 2646, 2647, 2648, 2649, 2650, 2651, 2652, 2653, 2654, 2655, 2656, 2657
 2658, 2659, 2660, 2661, 2662, 2663, 3091, 3092, 3093, 3094, 3095, 3096, 3097, 3098, 3099, 3100
 3101, 3102, 3103, 3104, 3105, 3106, 3107, 3108, 3109, 3110, 3111, 3112, 3113, 3114, 3115, 3116
 3117, 3118, 3119, 3120, 3121, 3122, 3123, 3124, 3125, 3126, 3127, 3128, 3129, 3130, 3131, 3132
 3133, 3134, 3135, 3136, 3137, 3138, 3139, 3140, 3141, 3142, 3143, 3144, 3145, 3146, 3147, 3148
 3149, 3150, 3151, 3152, 3153, 3154, 3155, 3156, 3157, 3158, 3159, 3160, 3161, 3162, 3163, 3164
 3165, 3166, 3167, 3168, 3169, 3170, 3171, 3172, 3173, 3174, 3175, 3176, 3177, 3178, 3179, 3180
 3181, 3182, 3183, 3184, 3185, 3186, 3187, 3188, 3189, 3190, 3191, 3192, 3193, 3194, 3195, 3196
** ... 20 like lines cut
*Elset, elset=PlateEdge, instance=Plate-1
    1,   12,   14,   16,   18,   19,   24,   25,   40,   49,   66,   68,   88,   89,   90,   91
   99,  101,  112,  113,  115,  116,  126,  127,  145,  146,  147,  148,  149,  150,  151,  152
  154,  161,  162,  168,  172,  175,  177,  178,  179,  180,  181,  182,  183,  185,  186,  194
  196,  224,  225,  229,  230,  231,  240,  241,  244,  248,  249,  253,  265,  266,  269,  277
  278,  313,  324,  338,  344,  349,  358,  374,  390,  603,  731,  732,  745,  754,  770,  782
  801,  811,  820,  821,  822,  823,  824,  825,  826,  827,  828,  829,  830,  831,  833,  834
  836,  837,  838,  839,  840,  841,  842,  843,  844,  845,  846,  847,  848,  851,  852,  853
  854,  855,  856,  857,  858,  859,  860,  861,  862,  863,  864,  865,  866,  868,  869,  870
  871,  873,  874,  875,  876,  877,  878,  879,  880,  881,  882,  883,  884,  885,  887,  888
  889,  890,  892,  893,  907,  908,  913,  915,  918,  919,  923,  925,  937,  949,  953,  954
 2529, 2540, 2542, 2544, 2546, 2547, 2552, 2553, 2568, 2577, 2594, 2596, 2616, 2617, 2618, 2619
 2627, 2629, 2640, 2641, 2643, 2644, 2654, 2655, 2673, 2674, 2675, 2676, 2677, 2678, 2679, 2680
 2682, 2689, 2690, 2696, 2700, 2703, 2705, 2706, 2707, 2708, 2709, 2710, 2711, 2713, 2714, 2722
 2724, 2752, 2753, 2757, 2758, 2759, 2768, 2769, 2772, 2776, 2777, 2781, 2793, 2794, 2797, 2805
 2806, 2841, 2852, 2866, 2872, 2877, 2886, 2902, 2918, 3131, 3259, 3260, 3273, 3282, 3298, 3310
 3329, 3339, 3348, 3349, 3350, 3351, 3352, 3353, 3354, 3355, 3356, 3357, 3358, 3359, 3361, 3362
 3364, 3365, 3366, 3367, 3368, 3369, 3370, 3371, 3372, 3373, 3374, 3375, 3376, 3379, 3380, 3381
 3382, 3383, 3384, 3385, 3386, 3387, 3388, 3389, 3390, 3391, 3392, 3393, 3394, 3396, 3397, 3398
 3399, 3401, 3402, 3403, 3404, 3405, 3406, 3407, 3408, 3409, 3410, 3411, 3412, 3413, 3415, 3416
 3417, 3418, 3420, 3421, 3435, 3436, 3441, 3443, 3446, 3447, 3451, 3453, 3465, 3477, 3481, 3482
** ... 10 like lines cut
*Nset, nset=Projectile, instance=Ball-1
    1,    2,    3,    4,    5,    6,    7,    8,    9,   10,   11,   12,   13,   14,   15,   16
   17,   18,   19,   20,   21,   22,   23,   24,   25,   26,   27,   28,   29,   30,   31,   32
   33,   34,   35,   36,   37,   38,   39,   40,   41,   42,   43,   44,   45,   46,   47,   48
   49,   50,   51,   52,   53,   54,   55,   56,   57,   58,   59,   60,   61,   62,   63,   64
   65,   66,   67,   68,   69,   70,   71,   72,   73,   74,   75,   76,   77,   78,   79,   80
   81,   82,   83,   84,   85,   86,   87,   88,   89,   90,   91,   92,   93,   94,   95,   96
   97,   98,   99,  100,  101,  102,  103,  104,  105,  106,  107,  108,  109,  110,  111,  112
  113,  114,  115,  116,  117,  118,  119,  120,  121,  122,  123,  124,  125,  126,  127,  128
  129,  130,  131,  132,  133,  134,  135,  136,  137,  138,  139,  140,  141,  142,  143,  144
  145,  146,  147,  148,  149,  150,  151,  152,  153,  154,  155,  156,  157,  158,  159,  160
  161,  162,  163,  164,  165,  166,  167,  168,  169,  170,  171,  172,  173,  174,  175,  176
  177,  178,  179,  180,  181,  182,  183,  184,  185,  186,  187,  188,  189,  190,  191,  192
  193,  194,  195,  425,  435,  455,  457,  459,  493,  495,  497,  499,  501,  503,  510,  512
  514,  549,  551,  553,  581,  594,  596,  598,  615,  633,  635,  637,  666,  668,  670,  674
  687,  689,  691,  696,  706,  734,  758,  760,  762,  778,  803,  811,  813,  815,  822,  824
  830,  832,  834,  862,  866,  900,  901,  914,  916,  918,  947,  960,  962,  964,  975,  980
  994,  996,  997, 1009, 1010, 1038, 1072, 1078, 1089, 1098, 1102, 1107, 1108, 1110, 1115, 1122
 1123, 1125, 1127, 1174, 1190, 1195, 1204, 1206, 1208, 1214, 1218, 1231, 1239, 1241, 1243, 1270
 1274, 1275, 1278, 1306, 1307, 1327, 1329, 1331, 1351, 1354, 1355, 1366, 1370, 1372, 1374, 1383
 1386, 1390, 1399, 1407, 1429, 1430, 1432, 1433, 1439, 1441, 1443, 1448, 1473, 1478, 1480, 1486
** ... 29 like lines cut
*Elset, elset=Projectile, instance=Ball-1
   17,   27,   28,   30,   40,   51,   61,   68,   72,   95,  108,  110,  113,  132,  139,  155
  164,  168,  195,  200,  237,  249,  287,  298,  329,  345,  348,  360,  368,  394,  399,  405
  417,  436,  437,  461,  464,  478,  480,  505,  516,  535,  538,  546,  554,  563,  566,  586
  601,  616,  627,  640,  686,  690,  706,  720,  727,  728,  754,  755,  763,  773,  779,  784
  790,  792,  810,  812,  842,  860,  879,  918,  975,  978,  979,  989,  999, 1001, 1038, 1045
 1056, 1091, 1150, 1152, 1153, 1154, 1155, 1159, 1160, 1161, 1162, 1163, 1164, 1166, 1167, 1169
 1170, 1171, 1174, 1175, 1177, 1179, 1180, 1182, 1183, 1186, 1189, 1191, 1192, 1197, 1200, 1201
 1202, 1204, 1205, 1207, 1208, 1211, 1212, 1214, 1215, 1216, 1218, 1219, 1221, 1223, 1224, 1230
 1231, 1232, 1233, 1237, 1238, 1239, 1240, 1241, 1243, 1245, 1247, 1248, 1249, 1250, 1251, 1252
 1254, 1255, 1257, 1258, 1259, 1260, 1261, 1262, 1263, 1265, 1266, 1267, 1268, 1269, 1270, 1272
 1276, 1278, 1279, 1280, 1281, 1282, 1283, 1284, 1285, 1288, 1289, 1290, 1291, 1292, 1294, 1295
 1296, 1300, 1304, 1305, 1312, 1318, 1321, 1322, 1325, 1326, 1329, 1332, 1337, 1342, 1344, 1345
 1348, 1349, 1350, 1351, 1352, 1353, 1356, 1359, 1360, 1361, 1362, 1363, 1364, 1365, 1366, 1367
 1368, 1369, 1370, 1371, 1375, 1378, 1379, 1382, 1383, 1384, 1387, 1388, 1389, 1390, 1391, 1393
 1394, 1395, 1397, 1398, 1399, 1400, 1401, 1402, 1405, 1408, 1410, 1411, 1415, 1416, 1418, 1420
 1421, 1423, 1424, 1425, 1426, 1427, 1428, 1430, 1431, 1433, 1434, 1435, 1436, 1437, 1442, 1444
 1445, 1446, 1447, 1448, 1449, 1450, 1451, 1452, 1453, 1455, 1457, 1460, 1461, 1462, 1463, 1464
 1465, 1466, 1467, 1468, 1469, 1470, 1471, 1472, 1474, 1475, 1476, 1478, 1480, 1487, 1489, 1490
 1491, 1492, 1493, 1494, 1497, 1499, 1500, 1501, 1502, 1504, 1505, 1507, 1508, 1510, 1512, 1514
 1517, 1518, 1519, 1521, 1522, 1525, 1527, 1528, 1531, 1533, 1534, 1535, 1536, 1539, 1540, 1541
** ... 5 like lines cut
*End Assembly
** 
** ELEMENT CONTROLS
** 
*Section Controls, name=EC-1, ELEMENT DELETION=YES
1., 1., 1.
** 
** MATERIALS
** 
*Material, name=HardSteel
*Density
8000.,
*Elastic
 2.2e+11, 0.3
*Material, name=PlateJC
*Damage Initiation, criterion=JOHNSON COOK
 0.05,    0.8,  -0.44, -0.046,     0.,     0.,     0.,  7.389
*Damage Evolution, type=ENERGY
41671.,
*Density
8000.,
*Elastic
 1.93e+11, 0.25
*Plastic, hardening=JOHNSON COOK
 1e+08, 2e+09,  0,   0,    0.,    0.
*Rate Dependent, type=JOHNSON COOK
 0.0026, 1e-4
** 
** INTERACTION PROPERTIES
** 
*Surface Interaction, name=IntProp-1
*Friction
 0.25,
** 
** BOUNDARY CONDITIONS
** 
** Name: PlateEdge Type: Displacement/Rotation
*Boundary
PlateEdge, 1, 1
PlateEdge, 2, 2
PlateEdge, 3, 3
PlateEdge, 4, 4
PlateEdge, 5, 5
PlateEdge, 6, 6
** 
** PREDEFINED FIELDS
** 
** Name: ProjectileVelocity   Type: Velocity
*Initial Conditions, type=VELOCITY
Projectile, 1, 0.
Projectile, 2, 0.
Projectile, 3, -600.
** 
** INTERACTIONS
** 
** Interaction: Int-1
*Contact, op=NEW
*Contact Inclusions, ALL EXTERIOR
*Contact Property Assignment
 ,  , IntProp-1
** ----------------------------------------------------------------
** 
** STEP: Step-1
** 
*Step, name=Step-1, nlgeom=YES
*Dynamic, Explicit
, 0.002,, 0.001
*Bulk Viscosity
0.06, 1.2
** 
** OUTPUT REQUESTS
** 
*Restart, write, number interval=1, time marks=NO
** 
** FIELD OUTPUT: F-Output-1
** 
*Output, field, number interval=100
*Node Output
A, RF, U, V
*Element Output, directions=YES
DMICRT, EVF, LE, PE, PEEQ, PEEQVAVG, PEVAVG, S, STATUS, SVAVG
*Contact Output
CSTRESS, 
** 
** HISTORY OUTPUT: H-Output-1
** 
*Output, history, variable=PRESELECT
*End Step
