*Heading
** Job name: PlateImpact_v2_2 Model name: PlateFEMTECH2
** Generated by: Abaqus/CAE 2017
*Preprint, echo=NO, model=NO, history=NO, contact=NO
**
** PARTS
**
*Part, name=SteelProjectile
*Node
      1,           0., 0.00476250006,           0.
      2, 0.00368597172, -0.00301579502,           0.
      3,           0., -0.00476250006,           0.
      4, 0.00260637561, -0.00301579502, 0.00260637561
      5,           0., -0.00301579502, 0.00368597172
      6, 0.000970135385, 0.00466264319,           0.
      7, 0.00189958862, 0.00436726119,           0.
      8, 0.00274938345, 0.00388873974,           0.
      9, 0.00348388427, 0.00324714603,           0.
     10, 0.00407228991, 0.00246938458,           0.
     11, 0.00448992616, 0.00158807088,           0.
     12, 0.00471927924, 0.000640162092,           0.
     13, 0.00475073187, -0.000334591576,           0.
     14, 0.00458296482, -0.00129531429,           0.
     15, 0.0042230133, -0.00220171874,           0.
     16, 0.00293424516, -0.00375121459,           0.
     17, 0.00203944626, -0.00430372683,           0.
     18, 0.00104520505, -0.00464639114,           0.
     19,           0., -0.00380999991,           0.
     20,           0., -0.00285749999,           0.
** ... 281 like lines cut
*Element, type=C3D4
  1, 202, 203, 204, 205
  2, 202, 206, 207, 208
  3, 202, 206, 205, 204
  4, 202, 206, 209, 207
  5, 202, 210, 207, 209
  6, 211, 212, 213, 126
  7, 211, 212,  10,  74
  8, 211, 214,  74,  78
  9, 211, 125,  10, 126
 10, 211, 215, 216, 217
 11, 218, 119,  91,  93
 12, 130, 125, 217, 215
 13, 211, 125,  67,  10
 14, 219,  76, 209, 220
 15, 220, 221,  32, 222
 16, 220,  32, 221,  89
 17, 220, 223, 221, 219
 18, 220,  16, 223,  75
 19, 220,  89,  16,  31
 20, 210, 224,  87,  83
** ... 1195 like lines cut
*Nset, nset=_PickedSet2, internal, generate
   1,  301,    1
*Elset, elset=_PickedSet2, internal, generate
    1,  1215,     1
*Nset, nset=All, generate
   1,  301,    1
*Elset, elset=All, generate
    1,  1215,     1
** Section: HardStee
*Solid Section, elset=_PickedSet2, material=HardSteel
,
*End Part
**  
*Part, name=TargetPlate
*Node
      1, -0.0253999997,           0.,           0.
      2,           0., 0.0253999997,           0.
      3,           0.,           0.,           0.
      4, -0.0253999997,           0., 0.0126999998
      5,           0., 0.0253999997, 0.0126999998
      6,           0.,           0., 0.0126999998
      7,    -0.111125,           0.,           0.
      8,           0.,     0.111125,           0.
      9, -0.127000004,           0.,           0.
     10,           0.,  0.127000004,           0.
     11,    -0.111125,           0., 0.0126999998
     12,           0.,     0.111125, 0.0126999998
     13, -0.127000004,           0., 0.0126999998
     14,           0.,  0.127000004, 0.0126999998
     15, -0.00254000002,           0.,           0.
     16, -0.00508000003,           0.,           0.
     17, -0.00761999981,           0.,           0.
     18, -0.0101600001,           0.,           0.
     19, -0.0126999998,           0.,           0.
     20, -0.0152399996,           0.,           0.
** ... 3526 like lines cut
*Element, type=C3D8
   1,  504,  505, 1707, 1569,   15,   16,  249,  248
   2,  505,  506, 1708, 1707,   16,   17,  250,  249
   3,  506,  507, 1709, 1708,   17,   18,  251,  250
   4,  507,  508, 1710, 1709,   18,   19,  252,  251
   5,  508,  509, 1711, 1710,   19,   20,  253,  252
   6,  509,  510, 1712, 1711,   20,   21,  254,  253
   7,  510,  511, 1713, 1712,   21,   22,  255,  254
   8,  511,  512, 1714, 1713,   22,   23,  256,  255
   9,  512,   40,  392, 1714,   23,    1,   24,  256
  10, 1569, 1707, 1715, 1570,  248,  249,  258,  257
  11, 1707, 1708, 1716, 1715,  249,  250,  259,  258
  12, 1708, 1709, 1717, 1716,  250,  251,  260,  259
  13, 1709, 1710, 1718, 1717,  251,  252,  261,  260
  14, 1710, 1711, 1719, 1718,  252,  253,  262,  261
  15, 1711, 1712, 1720, 1719,  253,  254,  263,  262
  16, 1712, 1713, 1721, 1720,  254,  255,  264,  263
  17, 1713, 1714, 1722, 1721,  255,  256,  265,  264
  18, 1714,  392,  393, 1722,  256,   24,   25,  265
  19, 1570, 1715, 1723, 1571,  257,  258,  267,  266
  20, 1715, 1716, 1724, 1723,  258,  259,  268,  267
** ... 2828 like lines cut
*Nset, nset=_PickedSet5, internal, generate
    1,  3546,     1
*Elset, elset=_PickedSet5, internal, generate
    1,  2848,     1
** Section: SteelJohnsonCook
*Solid Section, elset=_PickedSet5, controls=EC-1, material="Johnson Cook-Modified"
,
*End Part
**  
**
** ASSEMBLY
**
*Assembly, name=Assembly
**  
*Instance, name=TargetPlate-1, part=TargetPlate
*End Instance
**  
*Instance, name=SteelProjectile-1, part=SteelProjectile
          0.,           0., 0.01756220502393
          0.,           0., 0.01756220502393, -0.577350269189626, -0.577350269189626, 0.594912474213556,         120.
*End Instance
**  
*Nset, nset=Clamp, instance=TargetPlate-1
    7,    8,    9,   10,   11,   12,   13,   14,  142,  143,  144,  145,  146,  147,  148,  149
  150,  151,  152,  153,  154,  155,  156,  157,  166,  167,  168,  169,  170,  171,  172,  173
  174,  175,  176,  177,  178,  179,  180,  181,  182,  183,  192,  193,  194,  195,  196,  197
  198,  199,  200,  201,  202,  203,  204,  205,  206,  207,  216,  217,  218,  219,  220,  221
  222,  223,  224,  225,  226,  227,  228,  229,  230,  231,  232,  233, 1007, 1008, 1009, 1010
 1011, 1012, 1013, 1014, 1015, 1016, 1017, 1018, 1019, 1020, 1021, 1022, 1151, 1152, 1153, 1154
 1155, 1156, 1157, 1158, 1159, 1160, 1161, 1162, 1163, 1164, 1165, 1166
*Elset, elset=Clamp, instance=TargetPlate-1
 1506, 1507, 1508, 1509, 1510, 1511, 1512, 1513, 1514, 1515, 1516, 1517, 1518, 1519, 1520, 1521
 1522, 1523, 1524, 1525, 1526, 1527, 1528, 1529, 1530, 1531, 1532, 1533, 1534, 1535, 1536, 1537
 1538, 1539, 2815, 2816, 2817, 2818, 2819, 2820, 2821, 2822, 2823, 2824, 2825, 2826, 2827, 2828
 2829, 2830, 2831, 2832, 2833, 2834, 2835, 2836, 2837, 2838, 2839, 2840, 2841, 2842, 2843, 2844
 2845, 2846, 2847, 2848
*Nset, nset=Set-4, instance=SteelProjectile-1
   1,   2,   3,   4,   5,   6,   7,   8,   9,  10,  11,  12,  13,  14,  15,  16
  17,  18,  28,  29,  30,  31,  32,  33,  34,  35,  36,  37,  38,  39,  40,  41
  42,  43,  44,  45,  46,  47,  48,  49,  50,  51,  52,  53,  54,  55,  56,  57
  89, 121, 122, 123, 124, 125, 126, 127, 128, 129, 130, 131, 132, 133, 134, 135
 136, 137, 138, 139, 140, 141, 142, 143, 144, 145, 146, 147, 148, 149, 150, 151
 152, 153, 154, 155, 156, 157, 158, 159, 160, 161, 162, 163, 164, 165, 166, 167
 168, 169, 170
*Elset, elset=Set-4, instance=SteelProjectile-1
    9,   19,   36,   38,   43,   73,   76,   79,   85,   93,  133,  173,  176,  211,  213,  215
  238,  259,  264,  279,  281,  285,  287,  293,  294,  295,  303,  318,  323,  330,  333,  334
  335,  341,  349,  350,  353,  355,  357,  366,  372,  374,  383,  386,  388,  389,  390,  396
  400,  405,  415,  426,  431,  435,  447,  453,  456,  461,  472,  497,  498,  502,  504,  506
  507,  517,  521,  522,  523,  531,  546,  566,  579,  581,  582,  584,  585,  586,  588,  598
  631,  656,  687,  706,  713,  729,  856,  868,  873,  874,  904,  925,  962,  966,  968, 1060
 1069, 1086, 1097, 1099, 1103, 1106, 1108, 1110, 1113, 1114, 1115, 1116, 1117, 1118, 1119, 1121
 1126, 1128, 1131, 1132, 1133, 1134, 1135, 1136, 1138, 1139, 1141, 1142, 1143, 1144, 1145, 1147
 1148, 1149, 1150, 1151, 1152, 1155, 1156, 1157, 1159, 1160, 1162, 1163, 1164, 1165, 1167, 1168
 1169, 1170, 1171, 1172, 1174, 1176, 1178, 1181, 1185, 1186, 1187, 1188, 1190, 1193, 1196, 1197
 1198, 1201, 1205, 1206, 1208, 1209
*Nset, nset=Set-5, instance=SteelProjectile-1, generate
   1,  301,    1
*Elset, elset=Set-5, instance=SteelProjectile-1, generate
    1,  1215,     1
*Nset, nset=Symmx, instance=TargetPlate-1
    2,    3,    5,    6,    8,   10,   12,   14,   47,   48,   49,   50,   51,   52,   53,   54
   55,   56,   57,   58,   59,   60,   61,   62,   63,   64,   65,   66,   67,   68,   69,   70
   71,   72,   73,   74,   75,   76,   77,   78,   79,   80,   81,   82,   83,   84,  110,  111
  112,  113,  114,  115,  116,  117,  118,  119,  120,  121,  122,  123,  124,  125,  126,  127
  128,  129,  130,  131,  132,  133,  158,  159,  160,  161,  162,  163,  164,  165,  183,  208
  209,  210,  211,  212,  213,  214,  215,  217,  234,  235,  236,  237,  238,  239,  240,  567
  568,  569,  570,  571,  572,  573,  574,  575,  576,  577,  578,  579,  580,  581,  582,  583
  584,  585,  586,  587,  588,  589,  590,  591,  592,  593,  594,  595,  596,  597,  598,  599
  600,  601,  602,  603,  604,  605,  606,  607,  608,  609,  610,  611,  612,  613,  614,  615
  616,  617,  618,  619,  620,  621,  622,  623,  624,  625,  626,  627,  628,  629,  630,  631
  632,  633,  634,  635,  636,  637,  638,  639,  640,  641,  642,  643,  644,  645,  646,  647
  648,  649,  650,  651,  652,  653,  654,  655,  656,  657,  658,  659,  660,  661,  662,  663
  664,  665,  666,  667,  668,  669,  670,  671,  672,  673,  674,  675,  676,  677,  678,  679
  680,  681,  682,  683,  684,  685,  686,  687,  688,  689,  690,  691,  692,  693,  694,  695
  696,  697,  698,  699,  700,  701,  702,  703,  704,  705,  706,  707,  708,  709,  710,  711
  712,  713,  714,  715,  716,  717,  718,  719,  720,  721,  722,  723,  724,  725,  726,  727
  728,  729,  730,  731,  732,  733,  734, 1167, 1168, 1169, 1170, 1171, 1172, 1173, 1174, 1175
 1176, 1177, 1178, 1179, 1180, 1181, 1182, 1183, 1184, 1185, 1186, 1187, 1188, 1189, 1190, 1191
 1192, 1193, 1194, 1195, 1196, 1197, 1198, 1199, 1200, 1201, 1202, 1203, 1204, 1205, 1206, 1207
 1208, 1209, 1210, 1211, 1212, 1213, 1214, 1215, 1216, 1217, 1218, 1219, 1220, 1221, 1222, 1223
 1224, 1225, 1226, 1227, 1228, 1229, 1230, 1231, 1232, 1233, 1234, 1235, 1236
*Nset, nset=Symmx, instance=SteelProjectile-1
  1,  2,  3,  6,  7,  8,  9, 10, 11, 12, 13, 14, 15, 16, 17, 18
 19, 20, 21, 22, 23, 24, 25, 26, 27, 58, 59, 60, 61, 62, 63, 64
 65, 66, 67, 68, 69, 70, 71, 72, 73, 74, 75, 76, 77, 78, 79, 80
 81, 82, 83, 84, 85, 86, 87, 88
*Elset, elset=Symmx, instance=TargetPlate-1
  577,  578,  579,  580,  581,  582,  583,  584,  585,  586,  587,  588,  589,  590,  591,  592
  593,  594,  595,  596,  597,  598,  599,  600,  601,  602,  603,  604,  605,  606,  607,  608
  609,  610,  611,  612,  613,  614,  615,  616,  617,  618,  619,  620,  621,  622,  623,  624
  625,  626,  627,  628,  629,  630,  631,  632,  633,  634,  635,  636,  637,  638,  639,  640
  641,  642,  643,  644,  645,  646,  647,  648,  649,  650,  651,  652,  653,  654,  655,  656
  657,  658,  659,  660,  661,  662,  663,  664,  665,  666,  667,  668,  669,  670,  671,  672
  673,  674,  675,  676, 1253, 1254, 1255, 1256, 1257, 1258, 1259, 1260, 1261, 1262, 1263, 1264
 1265, 1266, 1267, 1268, 1269, 1270, 1271, 1272, 1273, 1274, 1275, 1276, 1277, 1278, 1279, 1280
 1281, 1282, 1283, 1284, 1285, 1286, 1287, 1288, 1289, 1290, 1291, 1292, 1293, 1294, 1295, 1296
 1297, 1298, 1299, 1300, 1301, 1302, 1303, 1304, 1305, 1306, 1307, 1308, 1309, 1310, 1311, 1312
 1313, 1314, 1315, 1316, 1317, 1318, 1319, 1320, 1321, 1322, 1323, 1324, 1325, 1326, 1327, 1328
 1329, 1330, 1331, 1332, 1333, 1334, 1335, 1336, 1337, 1338, 1339, 1340, 1341, 1342, 1343, 1344
 1345, 1346, 1347, 1348, 1349, 1350, 1351, 1352, 1353, 1370, 1387, 1404, 1421, 1438, 1455, 1472
 1489, 1506, 1523, 1540, 1557, 1574, 1591, 1608, 1625, 1642, 1659, 1676, 1693, 1710, 1727, 1744
 1761, 1778, 1795, 1812, 1829, 1846, 1863, 1880, 1897, 1914, 1931, 1948, 1965, 1982, 1999, 2016
 2033, 2050, 2067, 2084, 2101, 2118, 2135, 2152, 2169, 2186, 2203, 2220, 2237, 2254, 2271, 2288
 2305, 2322, 2339, 2356, 2373, 2390, 2407, 2424, 2441, 2458, 2475, 2492, 2509, 2526, 2543, 2560
 2577, 2594, 2611, 2628, 2645, 2662, 2679, 2696, 2713, 2730, 2747, 2764, 2781, 2798, 2815, 2832
*Elset, elset=Symmx, instance=SteelProjectile-1
  39,  59,  69,  81,  87,  94,  99, 117, 121, 150, 202, 209, 252, 282, 311, 313
 320, 352, 357, 361, 363, 374, 404, 405, 406, 415, 444, 466, 468, 474, 475, 476
 477, 479, 480, 483, 510, 513, 514, 516, 518, 523, 525, 526, 528, 529, 532, 534
 536, 537, 538, 539, 540, 543, 544, 545, 547, 548, 549, 550, 551, 552, 553, 554
 559, 562, 564, 565, 566, 567, 569, 570, 571, 572, 574, 576, 577, 578, 580, 591
 594, 595, 596, 597, 599
*Nset, nset=Symmy, instance=TargetPlate-1
    1,    3,    4,    6,    7,    9,   11,   13,   15,   16,   17,   18,   19,   20,   21,   22
   23,   40,   41,   42,   43,   44,   45,   46,   78,   79,   80,   81,   82,   83,   84,  101
  102,  103,  104,  105,  106,  107,  108,  109,  134,  135,  136,  137,  138,  139,  140,  141
  166,  184,  185,  186,  187,  188,  189,  190,  191,  216,  241,  242,  243,  244,  245,  246
  247,  504,  505,  506,  507,  508,  509,  510,  511,  512,  513,  514,  515,  516,  517,  518
  519,  520,  521,  522,  523,  524,  525,  526,  527,  528,  529,  530,  531,  532,  533,  534
  535,  536,  537,  538,  539,  540,  541,  542,  543,  544,  545,  546,  547,  548,  549,  550
  551,  552,  553,  554,  555,  556,  557,  558,  559,  560,  561,  562,  563,  564,  565,  566
 1237, 1238, 1239, 1240, 1241, 1242, 1243, 1244, 1245, 1246, 1247, 1248, 1249, 1250, 1251, 1252
 1253, 1254, 1255, 1256, 1257, 1258, 1259, 1260, 1261, 1262, 1263, 1264, 1265, 1266, 1267, 1268
 1269, 1270, 1271, 1272, 1273, 1274, 1275, 1276, 1277, 1278, 1279, 1280, 1281, 1282, 1283, 1284
 1285, 1286, 1287, 1288, 1289, 1290, 1291, 1292, 1293, 1294, 1295, 1296, 1297, 1298, 1299, 1300
 1301, 1302, 1303, 1304, 1305, 1306
*Nset, nset=Symmy, instance=SteelProjectile-1
   1,   3,   5,  19,  20,  21,  22,  23,  24,  25,  26,  27,  43,  44,  45,  46
  47,  48,  49,  50,  51,  52,  55,  56,  57, 171, 172, 173, 174, 175, 176, 177
 178, 179, 180, 181, 182, 183, 184, 185, 186, 187, 188, 189, 190, 191, 192, 193
 194, 195, 196, 197, 198, 199, 200, 201
*Elset, elset=Symmy, instance=TargetPlate-1
    1,    2,    3,    4,    5,    6,    7,    8,    9,  145,  146,  147,  148,  149,  150,  151
  152,  153,  289,  290,  291,  292,  293,  294,  295,  296,  297,  433,  434,  435,  436,  437
  438,  439,  440,  441,  628,  644,  660,  676,  677,  678,  679,  680,  741,  742,  743,  744
  805,  806,  807,  808,  869,  870,  871,  872,  933,  934,  935,  936,  997,  998,  999, 1000
 1061, 1062, 1063, 1064, 1125, 1126, 1127, 1128, 1189, 1190, 1191, 1192, 1289, 1290, 1291, 1292
 1369, 1386, 1403, 1420, 1437, 1454, 1471, 1488, 1505, 1522, 1539, 1556, 1573, 1590, 1607, 1624
 1641, 1658, 1675, 1692, 1709, 1726, 1743, 1760, 1777, 1794, 1811, 1828, 1845, 1862, 1879, 1896
 1913, 1930, 1947, 1964, 1981, 1998, 2015, 2032, 2049, 2066, 2083, 2100, 2117, 2134, 2151, 2168
 2185, 2202, 2219, 2236, 2253, 2270, 2287, 2304, 2321, 2338, 2355, 2372, 2389, 2406, 2423, 2440
 2457, 2474, 2491, 2508, 2525, 2542, 2559, 2576, 2593, 2610, 2627, 2644, 2661, 2678, 2695, 2712
 2729, 2746, 2763, 2780, 2797, 2814, 2831, 2848
*Elset, elset=Symmy, instance=SteelProjectile-1
  627,  642,  649,  663,  735,  810,  812,  846,  876,  908,  909,  918,  950,  969,  990,  995
  997,  998, 1002, 1004, 1005, 1006, 1007, 1009, 1011, 1013, 1015, 1016, 1017, 1019, 1023, 1024
 1026, 1028, 1029, 1030, 1035, 1040, 1042, 1044, 1046, 1049, 1050, 1051, 1052, 1054, 1056, 1059
 1063, 1064, 1065, 1068, 1073, 1076, 1078, 1079, 1080, 1082, 1083, 1087, 1090, 1092, 1095, 1102
 1105, 1109, 1110, 1112, 1143, 1146, 1148, 1149, 1158, 1170, 1175, 1177, 1179, 1183, 1184, 1187
 1191, 1195, 1200, 1204, 1206
*End Assembly
** 
** ELEMENT CONTROLS
** 
*Section Controls, name=EC-1, ELEMENT DELETION=YES
1., 1., 1.
** 
** MATERIALS
** 
*Material, name=HardSteel
*Density
8000.,
*Elastic
 4e+11, 0.3
*Material, name="Johnson Cook-Modified"
*Damage Initiation, criterion=JOHNSON COOK
 0.09,      0.,      0., -0.0596,      0.,      0.,      0.,  0.0001
*Damage Evolution, type=DISPLACEMENT, softening=TABULAR
     0.,      0.
 0.0016,   5e-05
 0.0064,  0.0001
 0.0144, 0.00015
 0.0256,  0.0002
   0.04, 0.00025
 0.0576,  0.0003
 0.0784, 0.00035
 0.1024,  0.0004
 0.1296, 0.00045
   0.16,  0.0005
 0.1936, 0.00055
 0.2304,  0.0006
     1., 0.00065
*Density
8000.,
*Elastic
 3.5e+11, 0.3
*Plastic, hardening=JOHNSON COOK
 9.8e+08, 9.95e+08,     0.45,       0.,       0.,       0.
*Rate Dependent, type=JOHNSON COOK
 0.0024, 0.0001
*Material, name="Johnson Cook-Modified-Hardened"
*Damage Initiation, criterion=JOHNSON COOK
 0.09,      0.,      0., -0.0596,      0.,      0.,      0.,  0.0001
*Damage Evolution, type=DISPLACEMENT, softening=TABULAR
     0.,      0.
 0.0016,   5e-05
 0.0064,  0.0001
 0.0144, 0.00015
 0.0256,  0.0002
   0.04, 0.00025
 0.0576,  0.0003
 0.0784, 0.00035
 0.1024,  0.0004
 0.1296, 0.00045
   0.16,  0.0005
 0.1936, 0.00055
 0.2304,  0.0006
     1., 0.00065
*Density
8000.,
*Elastic
 4e+11, 0.3
*Plastic, hardening=JOHNSON COOK
 9.8e+08, 9.95e+08,     0.45,       0.,       0.,       0.
*Rate Dependent, type=JOHNSON COOK
 0.0024, 0.0001
** 
** INTERACTION PROPERTIES
** 
*Surface Interaction, name=IntProp-1
*Friction
 0.42,
** 
** BOUNDARY CONDITIONS
** 
** Name: Clamp Type: Displacement/Rotation
*Boundary
Clamp, 1, 1
Clamp, 2, 2
Clamp, 3, 3
** Name: Symmx Type: Symmetry/Antisymmetry/Encastre
*Boundary
Symmx, XSYMM
** Name: Symmy Type: Symmetry/Antisymmetry/Encastre
*Boundary
Symmy, YSYMM
** 
** PREDEFINED FIELDS
** 
** Name: ProjectileVel   Type: Velocity
*Initial Conditions, type=VELOCITY
Set-5, 1, 0.
Set-5, 2, 0.
Set-5, 3, -1000.
** ----------------------------------------------------------------
** 
** STEP: Step-1
** 
*Step, name=Step-1, nlgeom=YES
*Dynamic, Explicit
, 0.00015
*Bulk Viscosity
0.06, 1.2
** 
** OUTPUT REQUESTS
** 
*Restart, write, number interval=1, time marks=NO
** 
** FIELD OUTPUT: F-Output-1
** 
*Output, field, number interval=100
*Node Output
A, RF, U, V
*Element Output, directions=YES
CFAILURE, DMICRT, ER, EVF, LE, NE, PE, PEEQ, PEEQVAVG, PEVAVG, S, SDEG, STATUS, SVAVG, TRIAX,YIELDS
*Contact Output
CSTRESS, 
** 
** HISTORY OUTPUT: H-Output-1
** 
*Output, history, variable=PRESELECT
*End Step
