*Heading
** Job name: 20elements Model name: Model-1
** Generated by: Abaqus/CAE 2017
*Preprint, echo=NO, model=NO, history=NO, contact=NO
**
** PARTS
**
*Part, name=Part-3
*Node
      1, 0.00499999989, 0.00499999989, 0.00499999989
      2, 0.00499999989, 0.00474999985, 0.00499999989
      3, 0.00499999989, 0.00449999981, 0.00499999989
      4, 0.00499999989, 0.00425000023, 0.00499999989
      5, 0.00499999989, 0.00400000019, 0.00499999989
      6, 0.00499999989, 0.00374999992, 0.00499999989
      7, 0.00499999989, 0.00350000011, 0.00499999989
      8, 0.00499999989, 0.00325000007, 0.00499999989
      9, 0.00499999989, 0.00300000003, 0.00499999989
     10, 0.00499999989, 0.00274999999, 0.00499999989
     11, 0.00499999989, 0.00249999994, 0.00499999989
     12, 0.00499999989, 0.0022499999, 0.00499999989
     13, 0.00499999989, 0.00200000009, 0.00499999989
     14, 0.00499999989, 0.00175000005, 0.00499999989
     15, 0.00499999989, 0.00150000001, 0.00499999989
     16, 0.00499999989, 0.00124999997, 0.00499999989
     17, 0.00499999989, 0.00100000005, 0.00499999989
     18, 0.00499999989, 0.000750000007, 0.00499999989
     19, 0.00499999989, 0.000500000024, 0.00499999989
     20, 0.00499999989, 0.000250000012, 0.00499999989
** ... 9241 like lines cut
*Element, type=C3D8
   1,  442,  443,  464,  463,    1,    2,   23,   22
   2,  443,  444,  465,  464,    2,    3,   24,   23
   3,  444,  445,  466,  465,    3,    4,   25,   24
   4,  445,  446,  467,  466,    4,    5,   26,   25
   5,  446,  447,  468,  467,    5,    6,   27,   26
   6,  447,  448,  469,  468,    6,    7,   28,   27
   7,  448,  449,  470,  469,    7,    8,   29,   28
   8,  449,  450,  471,  470,    8,    9,   30,   29
   9,  450,  451,  472,  471,    9,   10,   31,   30
  10,  451,  452,  473,  472,   10,   11,   32,   31
  11,  452,  453,  474,  473,   11,   12,   33,   32
  12,  453,  454,  475,  474,   12,   13,   34,   33
  13,  454,  455,  476,  475,   13,   14,   35,   34
  14,  455,  456,  477,  476,   14,   15,   36,   35
  15,  456,  457,  478,  477,   15,   16,   37,   36
  16,  457,  458,  479,  478,   16,   17,   38,   37
  17,  458,  459,  480,  479,   17,   18,   39,   38
  18,  459,  460,  481,  480,   18,   19,   40,   39
  19,  460,  461,  482,  481,   19,   20,   41,   40
  20,  461,  462,  483,  482,   20,   21,   42,   41
** ... 7980 like lines cut
*Nset, nset=_PickedSet9, internal, generate
    1,  9261,     1
*Elset, elset=_PickedSet9, internal, generate
    1,  8000,     1
** Section: Section-2
*Solid Section, elset=_PickedSet9, material=neohookean
,
*End Part
**  
**
** ASSEMBLY
**
*Assembly, name=Assembly
**  
*Instance, name=Part-3-1, part=Part-3
*End Instance
**  
*Node
      1,           0., 0.00499999989, 0.00249999994
*Node
      2, 0.00499999989, 0.00499999989, 0.00249999994
*Node
      3, 0.00499999989,           0., 0.00249999994
*Node
      4,           0.,           0., 0.00249999994
*Nset, nset=xnodes, instance=Part-3-1
 8821, 8841, 9241, 9261
*Nset, nset=xnodes2el, instance=Part-3-1
 8821, 8841, 9241, 9261
*Nset, nset=xnodes2el
 1, 4
*Nset, nset=yloadnodes, instance=Part-3-1
    1,  421, 8821, 9241
*Nset, nset=yloadnodes2el, instance=Part-3-1
    1,  421, 8821, 9241
*Nset, nset=yloadnodes2el
 1, 2
*Nset, nset=ynodes, instance=Part-3-1
   21,  441, 8841, 9261
*Nset, nset=ynodes2el, instance=Part-3-1
   21,  441, 8841, 9261
*Nset, nset=ynodes2el
 3, 4
*Nset, nset=znodes, instance=Part-3-1
  421,  441, 9241, 9261
*Nset, nset=_PickedSet35, internal, instance=Part-3-1, generate
 8821,  9261,     1
*Elset, elset=_PickedSet35, internal, instance=Part-3-1, generate
 7601,  8000,     1
*Nset, nset=_PickedSet37, internal, instance=Part-3-1, generate
   21,  9261,    21
*Elset, elset=_PickedSet37, internal, instance=Part-3-1, generate
   20,  8000,    20
*Nset, nset=_PickedSet38, internal, instance=Part-3-1
  421,  422,  423,  424,  425,  426,  427,  428,  429,  430,  431,  432,  433,  434,  435,  436
  437,  438,  439,  440,  441,  862,  863,  864,  865,  866,  867,  868,  869,  870,  871,  872
  873,  874,  875,  876,  877,  878,  879,  880,  881,  882, 1303, 1304, 1305, 1306, 1307, 1308
 1309, 1310, 1311, 1312, 1313, 1314, 1315, 1316, 1317, 1318, 1319, 1320, 1321, 1322, 1323, 1744
 1745, 1746, 1747, 1748, 1749, 1750, 1751, 1752, 1753, 1754, 1755, 1756, 1757, 1758, 1759, 1760
 1761, 1762, 1763, 1764, 2185, 2186, 2187, 2188, 2189, 2190, 2191, 2192, 2193, 2194, 2195, 2196
 2197, 2198, 2199, 2200, 2201, 2202, 2203, 2204, 2205, 2626, 2627, 2628, 2629, 2630, 2631, 2632
 2633, 2634, 2635, 2636, 2637, 2638, 2639, 2640, 2641, 2642, 2643, 2644, 2645, 2646, 3067, 3068
 3069, 3070, 3071, 3072, 3073, 3074, 3075, 3076, 3077, 3078, 3079, 3080, 3081, 3082, 3083, 3084
 3085, 3086, 3087, 3508, 3509, 3510, 3511, 3512, 3513, 3514, 3515, 3516, 3517, 3518, 3519, 3520
 3521, 3522, 3523, 3524, 3525, 3526, 3527, 3528, 3949, 3950, 3951, 3952, 3953, 3954, 3955, 3956
 3957, 3958, 3959, 3960, 3961, 3962, 3963, 3964, 3965, 3966, 3967, 3968, 3969, 4390, 4391, 4392
 4393, 4394, 4395, 4396, 4397, 4398, 4399, 4400, 4401, 4402, 4403, 4404, 4405, 4406, 4407, 4408
 4409, 4410, 4831, 4832, 4833, 4834, 4835, 4836, 4837, 4838, 4839, 4840, 4841, 4842, 4843, 4844
 4845, 4846, 4847, 4848, 4849, 4850, 4851, 5272, 5273, 5274, 5275, 5276, 5277, 5278, 5279, 5280
 5281, 5282, 5283, 5284, 5285, 5286, 5287, 5288, 5289, 5290, 5291, 5292, 5713, 5714, 5715, 5716
 5717, 5718, 5719, 5720, 5721, 5722, 5723, 5724, 5725, 5726, 5727, 5728, 5729, 5730, 5731, 5732
 5733, 6154, 6155, 6156, 6157, 6158, 6159, 6160, 6161, 6162, 6163, 6164, 6165, 6166, 6167, 6168
 6169, 6170, 6171, 6172, 6173, 6174, 6595, 6596, 6597, 6598, 6599, 6600, 6601, 6602, 6603, 6604
 6605, 6606, 6607, 6608, 6609, 6610, 6611, 6612, 6613, 6614, 6615, 7036, 7037, 7038, 7039, 7040
** ... 8 like lines cut
*Elset, elset=_PickedSet38, internal, instance=Part-3-1
  381,  382,  383,  384,  385,  386,  387,  388,  389,  390,  391,  392,  393,  394,  395,  396
  397,  398,  399,  400,  781,  782,  783,  784,  785,  786,  787,  788,  789,  790,  791,  792
  793,  794,  795,  796,  797,  798,  799,  800, 1181, 1182, 1183, 1184, 1185, 1186, 1187, 1188
 1189, 1190, 1191, 1192, 1193, 1194, 1195, 1196, 1197, 1198, 1199, 1200, 1581, 1582, 1583, 1584
 1585, 1586, 1587, 1588, 1589, 1590, 1591, 1592, 1593, 1594, 1595, 1596, 1597, 1598, 1599, 1600
 1981, 1982, 1983, 1984, 1985, 1986, 1987, 1988, 1989, 1990, 1991, 1992, 1993, 1994, 1995, 1996
 1997, 1998, 1999, 2000, 2381, 2382, 2383, 2384, 2385, 2386, 2387, 2388, 2389, 2390, 2391, 2392
 2393, 2394, 2395, 2396, 2397, 2398, 2399, 2400, 2781, 2782, 2783, 2784, 2785, 2786, 2787, 2788
 2789, 2790, 2791, 2792, 2793, 2794, 2795, 2796, 2797, 2798, 2799, 2800, 3181, 3182, 3183, 3184
 3185, 3186, 3187, 3188, 3189, 3190, 3191, 3192, 3193, 3194, 3195, 3196, 3197, 3198, 3199, 3200
 3581, 3582, 3583, 3584, 3585, 3586, 3587, 3588, 3589, 3590, 3591, 3592, 3593, 3594, 3595, 3596
 3597, 3598, 3599, 3600, 3981, 3982, 3983, 3984, 3985, 3986, 3987, 3988, 3989, 3990, 3991, 3992
 3993, 3994, 3995, 3996, 3997, 3998, 3999, 4000, 4381, 4382, 4383, 4384, 4385, 4386, 4387, 4388
 4389, 4390, 4391, 4392, 4393, 4394, 4395, 4396, 4397, 4398, 4399, 4400, 4781, 4782, 4783, 4784
 4785, 4786, 4787, 4788, 4789, 4790, 4791, 4792, 4793, 4794, 4795, 4796, 4797, 4798, 4799, 4800
 5181, 5182, 5183, 5184, 5185, 5186, 5187, 5188, 5189, 5190, 5191, 5192, 5193, 5194, 5195, 5196
 5197, 5198, 5199, 5200, 5581, 5582, 5583, 5584, 5585, 5586, 5587, 5588, 5589, 5590, 5591, 5592
 5593, 5594, 5595, 5596, 5597, 5598, 5599, 5600, 5981, 5982, 5983, 5984, 5985, 5986, 5987, 5988
 5989, 5990, 5991, 5992, 5993, 5994, 5995, 5996, 5997, 5998, 5999, 6000, 6381, 6382, 6383, 6384
 6385, 6386, 6387, 6388, 6389, 6390, 6391, 6392, 6393, 6394, 6395, 6396, 6397, 6398, 6399, 6400
** ... 5 like lines cut
*Nset, nset=_PickedSet39, internal, instance=Part-3-1, generate
    1,  9241,    21
*Elset, elset=_PickedSet39, internal, instance=Part-3-1, generate
    1,  7981,    20
*End Assembly
*Amplitude, name=Amp-1
             0.,              0.,             0.1,              1.
** 
** MATERIALS
** 
*Material, name=neohookean
*Density
1040.,
*Hyperelastic, neo hooke
50., 0.012
** ----------------------------------------------------------------
** 
** STEP: Step-1
** 
*Step, name=Step-1, nlgeom=YES
*Dynamic, Explicit
, 0.1
*Bulk Viscosity
0., 0.
** 
** BOUNDARY CONDITIONS
** 
** Name: BC-9 Type: Displacement/Rotation
*Boundary
_PickedSet35, 1, 1
** Name: BC-10 Type: Displacement/Rotation
*Boundary
_PickedSet38, 3, 3
** Name: BC-11 Type: Displacement/Rotation
*Boundary
_PickedSet37, 2, 2
** Name: BC-12 Type: Displacement/Rotation
*Boundary, amplitude=Amp-1
_PickedSet39, 2, 2, 0.007
** 
** OUTPUT REQUESTS
** 
*Restart, write, number interval=1, time marks=NO
** 
** FIELD OUTPUT: F-Output-1
** 
*Output, field
*Node Output
A, AR, AT, CF, RF, RM, RT, U
UR, UT, V, VR, VT
*Element Output, directions=YES
BF, GRAV, HP, IWCONWEP, NFORC, NFORCSO, P, SBF, SF, STAGP, TRNOR, TRSHR, VP
*Output, history, frequency=0
*End Step
