*Heading
** Job name: 27elements Model name: Model-1
** Generated by: Abaqus/CAE 2017
*Preprint, echo=NO, model=NO, history=NO, contact=NO
**
** PARTS
**
*Part, name=Part-3
*Node
      1, 0.00499999989, 0.00499999989, 0.00499999989
      2, 0.00499999989, 0.00481481478, 0.00499999989
      3, 0.00499999989, 0.00462962966, 0.00499999989
      4, 0.00499999989, 0.00444444455, 0.00499999989
      5, 0.00499999989, 0.00425925944, 0.00499999989
      6, 0.00499999989, 0.00407407386, 0.00499999989
      7, 0.00499999989, 0.00388888898, 0.00499999989
      8, 0.00499999989, 0.00370370364, 0.00499999989
      9, 0.00499999989, 0.00351851853, 0.00499999989
     10, 0.00499999989, 0.00333333341, 0.00499999989
     11, 0.00499999989, 0.00314814807, 0.00499999989
     12, 0.00499999989, 0.00296296296, 0.00499999989
     13, 0.00499999989, 0.00277777785, 0.00499999989
     14, 0.00499999989, 0.0025925925, 0.00499999989
     15, 0.00499999989, 0.00240740739, 0.00499999989
     16, 0.00499999989, 0.00222222228, 0.00499999989
     17, 0.00499999989, 0.00203703693, 0.00499999989
     18, 0.00499999989, 0.00185185182, 0.00499999989
     19, 0.00499999989, 0.00166666671, 0.00499999989
     20, 0.00499999989, 0.00148148148, 0.00499999989
** ... 21932 like lines cut
*Element, type=C3D8
    1,   785,   786,   814,   813,     1,     2,    30,    29
    2,   786,   787,   815,   814,     2,     3,    31,    30
    3,   787,   788,   816,   815,     3,     4,    32,    31
    4,   788,   789,   817,   816,     4,     5,    33,    32
    5,   789,   790,   818,   817,     5,     6,    34,    33
    6,   790,   791,   819,   818,     6,     7,    35,    34
    7,   791,   792,   820,   819,     7,     8,    36,    35
    8,   792,   793,   821,   820,     8,     9,    37,    36
    9,   793,   794,   822,   821,     9,    10,    38,    37
   10,   794,   795,   823,   822,    10,    11,    39,    38
   11,   795,   796,   824,   823,    11,    12,    40,    39
   12,   796,   797,   825,   824,    12,    13,    41,    40
   13,   797,   798,   826,   825,    13,    14,    42,    41
   14,   798,   799,   827,   826,    14,    15,    43,    42
   15,   799,   800,   828,   827,    15,    16,    44,    43
   16,   800,   801,   829,   828,    16,    17,    45,    44
   17,   801,   802,   830,   829,    17,    18,    46,    45
   18,   802,   803,   831,   830,    18,    19,    47,    46
   19,   803,   804,   832,   831,    19,    20,    48,    47
   20,   804,   805,   833,   832,    20,    21,    49,    48
** ... 19663 like lines cut
*Nset, nset=_PickedSet9, internal, generate
     1,  21952,      1
*Elset, elset=_PickedSet9, internal, generate
     1,  19683,      1
** Section: Section-2
*Solid Section, elset=_PickedSet9, material=neohookean
,
*End Part
**  
**
** ASSEMBLY
**
*Assembly, name=Assembly
**  
*Instance, name=Part-3-1, part=Part-3
*End Instance
**  
*Node
      1,           0., 0.00499999989, 0.00249999994
*Node
      2, 0.00499999989, 0.00499999989, 0.00249999994
*Node
      3, 0.00499999989,           0., 0.00249999994
*Node
      4,           0.,           0., 0.00249999994
*Nset, nset=xnodes, instance=Part-3-1
 21169, 21196, 21925, 21952
*Nset, nset=xnodes2el, instance=Part-3-1
 21169, 21196, 21925, 21952
*Nset, nset=xnodes2el
 1, 4
*Nset, nset=yloadnodes, instance=Part-3-1
     1,   757, 21169, 21925
*Nset, nset=yloadnodes2el, instance=Part-3-1
     1,   757, 21169, 21925
*Nset, nset=yloadnodes2el
 1, 2
*Nset, nset=ynodes, instance=Part-3-1
    28,   784, 21196, 21952
*Nset, nset=ynodes2el, instance=Part-3-1
    28,   784, 21196, 21952
*Nset, nset=ynodes2el
 3, 4
*Nset, nset=znodes, instance=Part-3-1
   757,   784, 21925, 21952
*Nset, nset=_PickedSet35, internal, instance=Part-3-1, generate
 21169,  21952,      1
*Elset, elset=_PickedSet35, internal, instance=Part-3-1, generate
 18955,  19683,      1
*Nset, nset=_PickedSet37, internal, instance=Part-3-1, generate
    28,  21952,     28
*Elset, elset=_PickedSet37, internal, instance=Part-3-1, generate
    27,  19683,     27
*Nset, nset=_PickedSet38, internal, instance=Part-3-1
   757,   758,   759,   760,   761,   762,   763,   764,   765,   766,   767,   768,   769,   770,   771,   772
   773,   774,   775,   776,   777,   778,   779,   780,   781,   782,   783,   784,  1541,  1542,  1543,  1544
  1545,  1546,  1547,  1548,  1549,  1550,  1551,  1552,  1553,  1554,  1555,  1556,  1557,  1558,  1559,  1560
  1561,  1562,  1563,  1564,  1565,  1566,  1567,  1568,  2325,  2326,  2327,  2328,  2329,  2330,  2331,  2332
  2333,  2334,  2335,  2336,  2337,  2338,  2339,  2340,  2341,  2342,  2343,  2344,  2345,  2346,  2347,  2348
  2349,  2350,  2351,  2352,  3109,  3110,  3111,  3112,  3113,  3114,  3115,  3116,  3117,  3118,  3119,  3120
  3121,  3122,  3123,  3124,  3125,  3126,  3127,  3128,  3129,  3130,  3131,  3132,  3133,  3134,  3135,  3136
  3893,  3894,  3895,  3896,  3897,  3898,  3899,  3900,  3901,  3902,  3903,  3904,  3905,  3906,  3907,  3908
  3909,  3910,  3911,  3912,  3913,  3914,  3915,  3916,  3917,  3918,  3919,  3920,  4677,  4678,  4679,  4680
  4681,  4682,  4683,  4684,  4685,  4686,  4687,  4688,  4689,  4690,  4691,  4692,  4693,  4694,  4695,  4696
  4697,  4698,  4699,  4700,  4701,  4702,  4703,  4704,  5461,  5462,  5463,  5464,  5465,  5466,  5467,  5468
  5469,  5470,  5471,  5472,  5473,  5474,  5475,  5476,  5477,  5478,  5479,  5480,  5481,  5482,  5483,  5484
  5485,  5486,  5487,  5488,  6245,  6246,  6247,  6248,  6249,  6250,  6251,  6252,  6253,  6254,  6255,  6256
  6257,  6258,  6259,  6260,  6261,  6262,  6263,  6264,  6265,  6266,  6267,  6268,  6269,  6270,  6271,  6272
  7029,  7030,  7031,  7032,  7033,  7034,  7035,  7036,  7037,  7038,  7039,  7040,  7041,  7042,  7043,  7044
  7045,  7046,  7047,  7048,  7049,  7050,  7051,  7052,  7053,  7054,  7055,  7056,  7813,  7814,  7815,  7816
  7817,  7818,  7819,  7820,  7821,  7822,  7823,  7824,  7825,  7826,  7827,  7828,  7829,  7830,  7831,  7832
  7833,  7834,  7835,  7836,  7837,  7838,  7839,  7840,  8597,  8598,  8599,  8600,  8601,  8602,  8603,  8604
  8605,  8606,  8607,  8608,  8609,  8610,  8611,  8612,  8613,  8614,  8615,  8616,  8617,  8618,  8619,  8620
  8621,  8622,  8623,  8624,  9381,  9382,  9383,  9384,  9385,  9386,  9387,  9388,  9389,  9390,  9391,  9392
** ... 29 like lines cut
*Elset, elset=_PickedSet38, internal, instance=Part-3-1
   703,   704,   705,   706,   707,   708,   709,   710,   711,   712,   713,   714,   715,   716,   717,   718
   719,   720,   721,   722,   723,   724,   725,   726,   727,   728,   729,  1432,  1433,  1434,  1435,  1436
  1437,  1438,  1439,  1440,  1441,  1442,  1443,  1444,  1445,  1446,  1447,  1448,  1449,  1450,  1451,  1452
  1453,  1454,  1455,  1456,  1457,  1458,  2161,  2162,  2163,  2164,  2165,  2166,  2167,  2168,  2169,  2170
  2171,  2172,  2173,  2174,  2175,  2176,  2177,  2178,  2179,  2180,  2181,  2182,  2183,  2184,  2185,  2186
  2187,  2890,  2891,  2892,  2893,  2894,  2895,  2896,  2897,  2898,  2899,  2900,  2901,  2902,  2903,  2904
  2905,  2906,  2907,  2908,  2909,  2910,  2911,  2912,  2913,  2914,  2915,  2916,  3619,  3620,  3621,  3622
  3623,  3624,  3625,  3626,  3627,  3628,  3629,  3630,  3631,  3632,  3633,  3634,  3635,  3636,  3637,  3638
  3639,  3640,  3641,  3642,  3643,  3644,  3645,  4348,  4349,  4350,  4351,  4352,  4353,  4354,  4355,  4356
  4357,  4358,  4359,  4360,  4361,  4362,  4363,  4364,  4365,  4366,  4367,  4368,  4369,  4370,  4371,  4372
  4373,  4374,  5077,  5078,  5079,  5080,  5081,  5082,  5083,  5084,  5085,  5086,  5087,  5088,  5089,  5090
  5091,  5092,  5093,  5094,  5095,  5096,  5097,  5098,  5099,  5100,  5101,  5102,  5103,  5806,  5807,  5808
  5809,  5810,  5811,  5812,  5813,  5814,  5815,  5816,  5817,  5818,  5819,  5820,  5821,  5822,  5823,  5824
  5825,  5826,  5827,  5828,  5829,  5830,  5831,  5832,  6535,  6536,  6537,  6538,  6539,  6540,  6541,  6542
  6543,  6544,  6545,  6546,  6547,  6548,  6549,  6550,  6551,  6552,  6553,  6554,  6555,  6556,  6557,  6558
  6559,  6560,  6561,  7264,  7265,  7266,  7267,  7268,  7269,  7270,  7271,  7272,  7273,  7274,  7275,  7276
  7277,  7278,  7279,  7280,  7281,  7282,  7283,  7284,  7285,  7286,  7287,  7288,  7289,  7290,  7993,  7994
  7995,  7996,  7997,  7998,  7999,  8000,  8001,  8002,  8003,  8004,  8005,  8006,  8007,  8008,  8009,  8010
  8011,  8012,  8013,  8014,  8015,  8016,  8017,  8018,  8019,  8722,  8723,  8724,  8725,  8726,  8727,  8728
  8729,  8730,  8731,  8732,  8733,  8734,  8735,  8736,  8737,  8738,  8739,  8740,  8741,  8742,  8743,  8744
** ... 26 like lines cut
*Nset, nset=_PickedSet39, internal, instance=Part-3-1, generate
     1,  21925,     28
*Elset, elset=_PickedSet39, internal, instance=Part-3-1, generate
     1,  19657,     27
*End Assembly
*Amplitude, name=Amp-1
             0.,              0.,             0.1,              1.
** 
** MATERIALS
** 
*Material, name=neohookean
*Density
1040.,
*Hyperelastic, neo hooke
50., 0.012
** ----------------------------------------------------------------
** 
** STEP: Step-1
** 
*Step, name=Step-1, nlgeom=YES
*Dynamic, Explicit
, 0.1
*Bulk Viscosity
0., 0.
** 
** BOUNDARY CONDITIONS
** 
** Name: BC-9 Type: Displacement/Rotation
*Boundary
_PickedSet35, 1, 1
** Name: BC-10 Type: Displacement/Rotation
*Boundary
_PickedSet38, 3, 3
** Name: BC-11 Type: Displacement/Rotation
*Boundary
_PickedSet37, 2, 2
** Name: BC-12 Type: Displacement/Rotation
*Boundary, amplitude=Amp-1
_PickedSet39, 2, 2, 0.007
** 
** OUTPUT REQUESTS
** 
*Restart, write, number interval=1, time marks=NO
** 
** FIELD OUTPUT: F-Output-1
** 
*Output, field
*Node Output
A, AR, AT, CF, RF, RM, RT, U
UR, UT, V, VR, VT
*Element Output, directions=YES
BF, GRAV, HP, IWCONWEP, NFORC, NFORCSO, P, SBF, SF, STAGP, TRNOR, TRSHR, VP
*Output, history, frequency=0
*End Step
