*Heading
** Job name: 10elements Model name: Model-1
** Generated by: Abaqus/CAE 2017
*Preprint, echo=NO, model=NO, history=NO, contact=NO
**
** PARTS
**
*Part, name=Part-3
*Node
      1, 0.00499999989, 0.00499999989, 0.00499999989
      2, 0.00499999989, 0.00449999981, 0.00499999989
      3, 0.00499999989, 0.00400000019, 0.00499999989
      4, 0.00499999989, 0.00350000011, 0.00499999989
      5, 0.00499999989, 0.00300000003, 0.00499999989
      6, 0.00499999989, 0.00249999994, 0.00499999989
      7, 0.00499999989, 0.00200000009, 0.00499999989
      8, 0.00499999989, 0.00150000001, 0.00499999989
      9, 0.00499999989, 0.00100000005, 0.00499999989
     10, 0.00499999989, 0.000500000024, 0.00499999989
     11, 0.00499999989,           0., 0.00499999989
     12, 0.00499999989, 0.00499999989, 0.00449999981
     13, 0.00499999989, 0.00449999981, 0.00449999981
     14, 0.00499999989, 0.00400000019, 0.00449999981
     15, 0.00499999989, 0.00350000011, 0.00449999981
     16, 0.00499999989, 0.00300000003, 0.00449999981
     17, 0.00499999989, 0.00249999994, 0.00449999981
     18, 0.00499999989, 0.00200000009, 0.00449999981
     19, 0.00499999989, 0.00150000001, 0.00449999981
     20, 0.00499999989, 0.00100000005, 0.00449999981
** ... 1311 like lines cut
*Element, type=C3D8
   1,  122,  123,  134,  133,    1,    2,   13,   12
   2,  123,  124,  135,  134,    2,    3,   14,   13
   3,  124,  125,  136,  135,    3,    4,   15,   14
   4,  125,  126,  137,  136,    4,    5,   16,   15
   5,  126,  127,  138,  137,    5,    6,   17,   16
   6,  127,  128,  139,  138,    6,    7,   18,   17
   7,  128,  129,  140,  139,    7,    8,   19,   18
   8,  129,  130,  141,  140,    8,    9,   20,   19
   9,  130,  131,  142,  141,    9,   10,   21,   20
  10,  131,  132,  143,  142,   10,   11,   22,   21
  11,  133,  134,  145,  144,   12,   13,   24,   23
  12,  134,  135,  146,  145,   13,   14,   25,   24
  13,  135,  136,  147,  146,   14,   15,   26,   25
  14,  136,  137,  148,  147,   15,   16,   27,   26
  15,  137,  138,  149,  148,   16,   17,   28,   27
  16,  138,  139,  150,  149,   17,   18,   29,   28
  17,  139,  140,  151,  150,   18,   19,   30,   29
  18,  140,  141,  152,  151,   19,   20,   31,   30
  19,  141,  142,  153,  152,   20,   21,   32,   31
  20,  142,  143,  154,  153,   21,   22,   33,   32
** ... 980 like lines cut
*Nset, nset=_PickedSet9, internal, generate
    1,  1331,     1
*Elset, elset=_PickedSet9, internal, generate
    1,  1000,     1
** Section: Section-2
*Solid Section, elset=_PickedSet9, material=neohookean
,
*End Part
**  
**
** ASSEMBLY
**
*Assembly, name=Assembly
**  
*Instance, name=Part-3-1, part=Part-3
*End Instance
**  
*Node
      1,           0., 0.00499999989, 0.00249999994
*Node
      2, 0.00499999989, 0.00499999989, 0.00249999994
*Node
      3, 0.00499999989,           0., 0.00249999994
*Node
      4,           0.,           0., 0.00249999994
*Nset, nset=xnodes, instance=Part-3-1
 1211, 1221, 1321, 1331
*Nset, nset=xnodes2el, instance=Part-3-1
 1211, 1221, 1321, 1331
*Nset, nset=xnodes2el
 1, 4
*Nset, nset=yloadnodes, instance=Part-3-1
    1,  111, 1211, 1321
*Nset, nset=yloadnodes2el, instance=Part-3-1
    1,  111, 1211, 1321
*Nset, nset=yloadnodes2el
 1, 2
*Nset, nset=ynodes, instance=Part-3-1
   11,  121, 1221, 1331
*Nset, nset=ynodes2el, instance=Part-3-1
   11,  121, 1221, 1331
*Nset, nset=ynodes2el
 3, 4
*Nset, nset=znodes, instance=Part-3-1
  111,  121, 1321, 1331
*Nset, nset=_PickedSet35, internal, instance=Part-3-1, generate
 1211,  1331,     1
*Elset, elset=_PickedSet35, internal, instance=Part-3-1, generate
  901,  1000,     1
*Nset, nset=_PickedSet37, internal, instance=Part-3-1, generate
   11,  1331,    11
*Elset, elset=_PickedSet37, internal, instance=Part-3-1, generate
   10,  1000,    10
*Nset, nset=_PickedSet38, internal, instance=Part-3-1
  111,  112,  113,  114,  115,  116,  117,  118,  119,  120,  121,  232,  233,  234,  235,  236
  237,  238,  239,  240,  241,  242,  353,  354,  355,  356,  357,  358,  359,  360,  361,  362
  363,  474,  475,  476,  477,  478,  479,  480,  481,  482,  483,  484,  595,  596,  597,  598
  599,  600,  601,  602,  603,  604,  605,  716,  717,  718,  719,  720,  721,  722,  723,  724
  725,  726,  837,  838,  839,  840,  841,  842,  843,  844,  845,  846,  847,  958,  959,  960
  961,  962,  963,  964,  965,  966,  967,  968, 1079, 1080, 1081, 1082, 1083, 1084, 1085, 1086
 1087, 1088, 1089, 1200, 1201, 1202, 1203, 1204, 1205, 1206, 1207, 1208, 1209, 1210, 1321, 1322
 1323, 1324, 1325, 1326, 1327, 1328, 1329, 1330, 1331
*Elset, elset=_PickedSet38, internal, instance=Part-3-1
   91,   92,   93,   94,   95,   96,   97,   98,   99,  100,  191,  192,  193,  194,  195,  196
  197,  198,  199,  200,  291,  292,  293,  294,  295,  296,  297,  298,  299,  300,  391,  392
  393,  394,  395,  396,  397,  398,  399,  400,  491,  492,  493,  494,  495,  496,  497,  498
  499,  500,  591,  592,  593,  594,  595,  596,  597,  598,  599,  600,  691,  692,  693,  694
  695,  696,  697,  698,  699,  700,  791,  792,  793,  794,  795,  796,  797,  798,  799,  800
  891,  892,  893,  894,  895,  896,  897,  898,  899,  900,  991,  992,  993,  994,  995,  996
  997,  998,  999, 1000
*Nset, nset=_PickedSet39, internal, instance=Part-3-1, generate
    1,  1321,    11
*Elset, elset=_PickedSet39, internal, instance=Part-3-1, generate
   1,  991,   10
*End Assembly
*Amplitude, name=Amp-1
             0.,              0.,             0.1,              1.
** 
** MATERIALS
** 
*Material, name=neohookean
*Density
1040.,
*Hyperelastic, neo hooke
50., 0.012
** ----------------------------------------------------------------
** 
** STEP: Step-1
** 
*Step, name=Step-1, nlgeom=YES
*Dynamic, Explicit
, 0.1
*Bulk Viscosity
0., 0.
** 
** BOUNDARY CONDITIONS
** 
** Name: BC-9 Type: Displacement/Rotation
*Boundary
_PickedSet35, 1, 1
** Name: BC-10 Type: Displacement/Rotation
*Boundary
_PickedSet38, 3, 3
** Name: BC-11 Type: Displacement/Rotation
*Boundary
_PickedSet37, 2, 2
** Name: BC-12 Type: Displacement/Rotation
*Boundary, amplitude=Amp-1
_PickedSet39, 2, 2, 0.007
** 
** OUTPUT REQUESTS
** 
*Restart, write, number interval=1, time marks=NO
** 
** FIELD OUTPUT: F-Output-1
** 
*Output, field
*Node Output
A, RF, U, V
*Output, history, frequency=0
*End Step
