*Heading
** Job name: 6elements Model name: Model-1
** Generated by: Abaqus/CAE 2017
*Preprint, echo=NO, model=NO, history=NO, contact=NO
**
** PARTS
**
*Part, name=Part-3
*Node
      1, 0.00499999989, 0.00499999989, 0.00499999989
      2, 0.00499999989, 0.00416666688, 0.00499999989
      3, 0.00499999989, 0.00333333341, 0.00499999989
      4, 0.00499999989, 0.00249999994, 0.00499999989
      5, 0.00499999989, 0.00166666671, 0.00499999989
      6, 0.00499999989, 0.000833333354, 0.00499999989
      7, 0.00499999989,           0., 0.00499999989
      8, 0.00499999989, 0.00499999989, 0.00416666688
      9, 0.00499999989, 0.00416666688, 0.00416666688
     10, 0.00499999989, 0.00333333341, 0.00416666688
     11, 0.00499999989, 0.00249999994, 0.00416666688
     12, 0.00499999989, 0.00166666671, 0.00416666688
     13, 0.00499999989, 0.000833333354, 0.00416666688
     14, 0.00499999989,           0., 0.00416666688
     15, 0.00499999989, 0.00499999989, 0.00333333341
     16, 0.00499999989, 0.00416666688, 0.00333333341
     17, 0.00499999989, 0.00333333341, 0.00333333341
     18, 0.00499999989, 0.00249999994, 0.00333333341
     19, 0.00499999989, 0.00166666671, 0.00333333341
     20, 0.00499999989, 0.000833333354, 0.00333333341
** ... 323 like lines cut
*Element, type=C3D8
  1,  50,  51,  58,  57,   1,   2,   9,   8
  2,  51,  52,  59,  58,   2,   3,  10,   9
  3,  52,  53,  60,  59,   3,   4,  11,  10
  4,  53,  54,  61,  60,   4,   5,  12,  11
  5,  54,  55,  62,  61,   5,   6,  13,  12
  6,  55,  56,  63,  62,   6,   7,  14,  13
  7,  57,  58,  65,  64,   8,   9,  16,  15
  8,  58,  59,  66,  65,   9,  10,  17,  16
  9,  59,  60,  67,  66,  10,  11,  18,  17
 10,  60,  61,  68,  67,  11,  12,  19,  18
 11,  61,  62,  69,  68,  12,  13,  20,  19
 12,  62,  63,  70,  69,  13,  14,  21,  20
 13,  64,  65,  72,  71,  15,  16,  23,  22
 14,  65,  66,  73,  72,  16,  17,  24,  23
 15,  66,  67,  74,  73,  17,  18,  25,  24
 16,  67,  68,  75,  74,  18,  19,  26,  25
 17,  68,  69,  76,  75,  19,  20,  27,  26
 18,  69,  70,  77,  76,  20,  21,  28,  27
 19,  71,  72,  79,  78,  22,  23,  30,  29
 20,  72,  73,  80,  79,  23,  24,  31,  30
** ... 196 like lines cut
*Nset, nset=_PickedSet9, internal, generate
   1,  343,    1
*Elset, elset=_PickedSet9, internal, generate
   1,  216,    1
** Section: Section-2
*Solid Section, elset=_PickedSet9, material=neohookean
,
*End Part
**  
**
** ASSEMBLY
**
*Assembly, name=Assembly
**  
*Instance, name=Part-3-1, part=Part-3
*End Instance
**  
*Node
      1,           0., 0.00499999989, 0.00249999994
*Node
      2, 0.00499999989, 0.00499999989, 0.00249999994
*Node
      3, 0.00499999989,           0., 0.00249999994
*Node
      4,           0.,           0., 0.00249999994
*Nset, nset=xnodes, instance=Part-3-1
 295, 301, 337, 343
*Nset, nset=xnodes2el, instance=Part-3-1
 295, 301, 337, 343
*Nset, nset=xnodes2el
 1, 4
*Nset, nset=yloadnodes, instance=Part-3-1
   1,  43, 295, 337
*Nset, nset=yloadnodes2el, instance=Part-3-1
   1,  43, 295, 337
*Nset, nset=yloadnodes2el
 1, 2
*Nset, nset=ynodes, instance=Part-3-1
   7,  49, 301, 343
*Nset, nset=ynodes2el, instance=Part-3-1
   7,  49, 301, 343
*Nset, nset=ynodes2el
 3, 4
*Nset, nset=znodes, instance=Part-3-1
  43,  49, 337, 343
*Nset, nset=_PickedSet35, internal, instance=Part-3-1, generate
 295,  343,    1
*Elset, elset=_PickedSet35, internal, instance=Part-3-1, generate
 181,  216,    1
*Nset, nset=_PickedSet37, internal, instance=Part-3-1, generate
   7,  343,    7
*Elset, elset=_PickedSet37, internal, instance=Part-3-1, generate
   6,  216,    6
*Nset, nset=_PickedSet38, internal, instance=Part-3-1
  43,  44,  45,  46,  47,  48,  49,  92,  93,  94,  95,  96,  97,  98, 141, 142
 143, 144, 145, 146, 147, 190, 191, 192, 193, 194, 195, 196, 239, 240, 241, 242
 243, 244, 245, 288, 289, 290, 291, 292, 293, 294, 337, 338, 339, 340, 341, 342
 343,
*Elset, elset=_PickedSet38, internal, instance=Part-3-1
  31,  32,  33,  34,  35,  36,  67,  68,  69,  70,  71,  72, 103, 104, 105, 106
 107, 108, 139, 140, 141, 142, 143, 144, 175, 176, 177, 178, 179, 180, 211, 212
 213, 214, 215, 216
*Nset, nset=_PickedSet39, internal, instance=Part-3-1, generate
   1,  337,    7
*Elset, elset=_PickedSet39, internal, instance=Part-3-1, generate
   1,  211,    6
*End Assembly
*Amplitude, name=Amp-1
             0.,              0.,              1.,              1.
** 
** MATERIALS
** 
*Material, name=neohookean
*Density
1040.,
*Hyperelastic, neo hooke
50., 0.012
** ----------------------------------------------------------------
** 
** STEP: Step-1
** 
*Step, name=Step-1, nlgeom=YES
*Dynamic, Explicit
, 1.
*Bulk Viscosity
0., 0.
** 
** BOUNDARY CONDITIONS
** 
** Name: BC-9 Type: Displacement/Rotation
*Boundary
_PickedSet35, 1, 1
** Name: BC-10 Type: Displacement/Rotation
*Boundary
_PickedSet38, 3, 3
** Name: BC-11 Type: Displacement/Rotation
*Boundary
_PickedSet37, 2, 2
** Name: BC-12 Type: Displacement/Rotation
*Boundary, amplitude=Amp-1
_PickedSet39, 2, 2, 0.001
** 
** OUTPUT REQUESTS
** 
*Restart, write, number interval=1, time marks=NO
** 
** FIELD OUTPUT: F-Output-1
** 
*Output, field, variable=PRESELECT, number interval=100, time marks=YES
** 
** HISTORY OUTPUT: H-Output-1
** 
*Output, history, variable=PRESELECT
*End Step
