*Heading
** Job name: force_test Model name: 1elt-hex
** Generated by: Abaqus/CAE 2017
*Preprint, echo=NO, model=NO, history=NO, contact=NO
**
** PARTS
**
*Part, name=PART-1
*Node
      1,           0.,           0.,           0.
      2, 0.00499999989,           0.,           0.
      3,           0., 0.00499999989,           0.
      4, 0.00499999989, 0.00499999989,           0.
      5,           0.,           0., 0.00499999989
      6, 0.00499999989,           0., 0.00499999989
      7,           0., 0.00499999989, 0.00499999989
      8, 0.00499999989, 0.00499999989, 0.00499999989
      9,           0.,           0., 0.00249999994
     10,           0., 0.00499999989, 0.00249999994
     11, 0.00499999989, 0.00499999989, 0.00249999994
     12, 0.00499999989,           0., 0.00249999994
*Element, type=C3D8
1, 1, 2, 4, 3, 5, 6, 8, 7
*Nset, nset=SET-1, generate
 1,  8,  1
*Elset, elset=SET-1
 1,
*Elset, elset=Set-2
 1,
** Section: Section-1-SET-1
*Solid Section, elset=Set-2, material=MATERIAL-1
,
*End Part
**  
**
** ASSEMBLY
**
*Assembly, name=Assembly
**  
*Instance, name=PART-1-1, part=PART-1
*End Instance
**  
*Nset, nset=SET-1, instance=PART-1-1, generate
 2,  8,  2
*Elset, elset=SET-1, instance=PART-1-1
 1,
*Nset, nset=SET-2, instance=PART-1-1, generate
 5,  8,  1
*Elset, elset=SET-2, instance=PART-1-1
 1,
*Nset, nset=SET-3, instance=PART-1-1
 3, 4, 7, 8
*Elset, elset=SET-3, instance=PART-1-1
 1,
*Nset, nset=SET-4, instance=PART-1-1, generate
 1,  7,  2
*Elset, elset=SET-4, instance=PART-1-1
 1,
*Nset, nset=SET-5, instance=PART-1-1
 3, 4, 7, 8
*Nset, nset=SET-6, instance=PART-1-1, generate
 1,  7,  2
*Nset, nset=SET-7, instance=PART-1-1, generate
 1,  4,  1
*Nset, nset=SET-8, instance=PART-1-1
 1, 2, 5, 6
*Nset, nset=_PickedSet16, internal, instance=PART-1-1
 3, 4, 7, 8
*End Assembly
*Amplitude, name=AMP-1
             0.,              0.,              1.,              1.
** 
** MATERIALS
** 
*Material, name=MATERIAL-1
*Density
1040.,
*Hyperelastic, neo hooke
50., 0.012
** ----------------------------------------------------------------
** 
** STEP: Step-1
** 
*Step, name=Step-1, nlgeom=YES
*Dynamic, Explicit
, 1.
*Bulk Viscosity
0., 0.
** 
** BOUNDARY CONDITIONS
** 
** Name: Disp-BC-2 Type: Displacement/Rotation
*Boundary
SET-6, 1, 1
** Name: Disp-BC-3 Type: Displacement/Rotation
*Boundary
SET-7, 3, 3
** Name: Disp-BC-4 Type: Displacement/Rotation
*Boundary
SET-8, 2, 2
** 
** LOADS
** 
** Name: Load-1   Type: Concentrated force
*Cload, amplitude=AMP-1
_PickedSet16, 2, 0.0005
** 
** OUTPUT REQUESTS
** 
*Restart, write, number interval=1, time marks=NO
** 
** FIELD OUTPUT: F-Output-1
** 
*Output, field
*Node Output
A, RF, U, V
*Element Output, directions=YES
EVF, LE, PE, PEEQ, PEEQVAVG, PEVAVG, S, SVAVG
** 
** HISTORY OUTPUT: H-Output-1
** 
*Output, history, variable=PRESELECT, time interval=0.05
*End Step
